LAMMPS (29 Sep 2021 - Update 2)
# Test input file for water interacting through CS potential

units 		real
atom_style	bond

bond_style	zero

variable	Ntot	equal 1000
variable	chi	equal 0.1
variable	Nmet	equal 0.1*1000
variable	Nwat	equal 1000-100
variable	dim	equal 18
variable	dim2	equal 18-4
variable	dt	equal 0.01
variable	Temp	equal 261.88
variable	Nrun	equal 5.0e6
variable	Nthermo equal 5000000/1000
variable	Ndump	equal 5000000/100

lattice		sc 2 origin 0.5 0.5 0.5
Lattice spacing in x,y,z = 2.0000000 2.0000000 2.0000000
region		box1 block 0 18 0 18 0 18
region		box2 block 0 14 0 14 0 14
create_box	3 box1 bond/types 1 extra/bond/per/atom 1
Created orthogonal box = (0.0000000 0.0000000 0.0000000) to (36.000000 36.000000 36.000000)

#info		system

molecule	dimer dimer.txt
Read molecule template dimer:
  1 molecules
  0 fragments
  2 atoms with max type 2
  1 bonds with max type 1
  0 angles with max type 0
  0 dihedrals with max type 0
  0 impropers with max type 0
create_atoms	0 region box2 mol dimer 4321 subset 100 1221
Created 200 atoms

bond_coeff	1 1.0

lattice		sc 2 origin 0 0 0
Lattice spacing in x,y,z = 2.0000000 2.0000000 2.0000000

create_atoms	3 region box1 subset 900 1234
Created 900 atoms

#possibilitat de masses=1??
mass		1 15.0
mass		2 17.0
mass		3 18.0

pair_style	table linear 20000
pair_coeff	1 1 table_LJ_N20k_11.dat LL 3.5
pair_coeff	1 2 table_LJ_N20k_1j.dat LL 3.5
pair_coeff	1 3 table_LJ_N20k_1j.dat LL 3.5
pair_coeff	2 2 table_CS_N20k_3.dat LL 3.5
pair_coeff	2 3 table_CS_N20k_3.dat LL 3.5
pair_coeff	3 3 table_CS_N20k_3.dat LL 3.5

group		methyl type 1
100 atoms in group methyl
group		hydrox type 2
100 atoms in group hydrox
group		methanol type 1:2
200 atoms in group methanol
group		water type 3
900 atoms in group water
group		all region box1
1100 atoms in group all

fix		1 methanol shake 0.0001 20 0 b 1 mol dimer
     100 = # of size 2 clusters
       0 = # of size 3 clusters
       0 = # of size 4 clusters
       0 = # of frozen angles
  find clusters CPU = 0.000 seconds
fix 		2 all nvt temp 261.88 261.88 $(100.0*dt)
fix 		2 all nvt temp 261.88 261.88 100

neigh_modify 	one 10000

timestep	0.01

thermo		5000

dump		1 all atom 50000 cs.lammpstrj

write_data	conf_312.dat nocoeff
System init for write_data ...
  update every 1 steps, delay 10 steps, check yes

run		5000000
Step Temp E_pair E_mol TotEng Press
0            0   -435.01904            0   -435.01904   -17.446443
Averages over the last 501 of 1001 rows, steps 2500000 to 5000000:
Temp E_pair E_mol TotEng Press
261.624 -3550.28 0 -2719.22 17.8583
Loop time of 1994.61 on 1 procs for 5000000 steps with 1100 atoms

undump		1
