LAMMPS (29 Sep 2021 - Update 2)
# Test input file for water interacting through CS potential

units 		real
atom_style	atomic

variable	dt	equal 1.0
variable	Nrun	equal 100000
variable	Nthermo equal 100000/100
variable	Ndump	equal 100000/100

lattice		sc 1.0
Lattice spacing in x,y,z = 1.0000000 1.0000000 1.0000000
region		box block 0 50 0 50 0 50
create_box	1 box
Created orthogonal box = (0.0000000 0.0000000 0.0000000) to (50.000000 50.000000 50.000000)

create_atoms	1 random 84 1234 box
Created 84 atoms

mass		1 1.0

pair_style	table linear 20000
pair_coeff	1 1 table_CS_N20k_3.dat LL 6.0

group		wat type 1
84 atoms in group wat

fix		1 wat nvt temp 100 100 100

timestep	1

thermo		1000

dump		1 all atom 1000 cs.lammpstrj
dump_modify	1 scale no

run		100000
  update every 1 steps, delay 10 steps, check yes
Step Temp E_pair E_mol TotEng Press
0            0    29.508912            0    29.508912    131.23889
Averages over the last 51 of 101 rows, steps 50000 to 100000:
Temp E_pair E_mol TotEng Press
101.33 -2.01243 0 23.0574 8.38511
Loop time of 2.01125 on 1 procs for 100000 steps with 84 atoms

undump		1
