LAMMPS (29 Sep 2021 - Update 2)
# Input file for the confinement simulation of a water-methanol mixture
# inside a graphene slit pore.
# Slit width: 6.5 A

units		real
atom_style	bond
#boundary	p p f

bond_style	harmonic

variable        dt      equal 1
variable        Temp    equal 100.0
variable	pres	equal 1.0
variable	Ntot	equal 25000
variable	chi	equal 0.1
variable	Nmet	equal 0.1*25000
variable	Nwat	equal 25000-2500
variable	slit	equal 12.5
variable        Nrun    equal 1.0e3
variable        Nthermo equal 1000/1000
variable        Ndump   equal 1000/100
#variable	Nthermo	equal 1
#variable	Ndump	equal 1

variable	sq32	equal sqrt(3)/2
variable	acc	equal 1.42
variable	dist	equal sqrt(3)*1.42
variable	ax	equal 2.45951214674781*0.866025403784439
variable	ay	equal 2.45951214674781*0.5
variable	tr	equal 1/3

# Region limited to the graphene slit-pore extend. Changes later.
region		box block -24.5 24.5 -25.5 25.5 -7.0 +7.0
create_box	4 box bond/types 1 extra/bond/per/atom 1
Created orthogonal box = (-24.500000 -25.500000 -7.0000000) to (24.500000 25.500000 7.0000000)
lattice		custom 1.0 		a1 	2.13 	1.22975607337391 	0.0 			a2 	2.13  -1.22975607337391 	0.0 			a3 	 0.0 	 0.0    1.633 			basis	 0.0     0.0    0.0     		basis   0.333333333333333 	0.333333333333333 	0.0
Lattice spacing in x,y,z = 4.2600000 2.4595121 1.6330000

region		plane1 block -24.5 24.5 -25.5 25.5 -6.25 -4.0
region		plane2 block -24.5 24.5 -25.5 25.5  4.0 6.25

create_atoms	1 region plane1
Created 943 atoms
create_atoms	1 region plane2
Created 943 atoms

lattice		sc 1.0
Lattice spacing in x,y,z = 1.0000000 1.0000000 1.0000000

change_box      all x final -42.0 42.0                     y final -42.0 42.0                     z final -51.0 51.0
Changing box ...
  orthogonal box = (-42.000000 -25.500000 -7.0000000) to (42.000000 25.500000 7.0000000)
  orthogonal box = (-42.000000 -42.000000 -7.0000000) to (42.000000 42.000000 7.0000000)
  orthogonal box = (-42.000000 -42.000000 -51.000000) to (42.000000 42.000000 51.000000)

region          in1 block -41.0 41.0 -41.0 41.0 -49.0 -8.0
region          in2 block -41.0 41.0 -41.0 41.0  8.0 49.0
region          in3 block -41.0 41.0 -41.0 41.0 -4.5 2.0
region          in_1 union 3 in1 in2 in3

region          in4 block -40.0 40.0 -40.0 40.0 -46.0 -11.0
region          in5 block -40.0 40.0 -40.0 40.0 11.0 46.0
region          in6 block -40.0 40.0 -40.0 40.0 -5.0 5.0
region          in_2 union 3 in4 in5 in6

lattice         custom 1.0                 a1      2.13   1.22975607337391   0.0                     a2      2.13  -1.22975607337391   0.0                     a3       0.0     0.0    6.0                     basis    0.0     0.0    0.0                     basis   0.333333333333333   0.333333333333333   0.0
Lattice spacing in x,y,z = 4.2600000 2.4595121 6.0000000

create_atoms	4 region in_1 subset 22500 1234
Created 22500 atoms

lattice		sc 6.0 origin 0.5 0.5 0.5
Lattice spacing in x,y,z = 6.0000000 6.0000000 6.0000000

molecule	dimer dimer.txt
Read molecule template dimer:
  1 molecules
  0 fragments
  2 atoms with max type 2
  1 bonds with max type 1
  0 angles with max type 0
  0 dihedrals with max type 0
  0 impropers with max type 0
create_atoms	1 region in_2 mol dimer 4321 subset 2500 1221
Created 5000 atoms

bond_coeff	1 0.0 1.0

lattice		sc 1.0
Lattice spacing in x,y,z = 1.0000000 1.0000000 1.0000000

change_box      all x final -42.0 42.0                     y final -42.0 42.0                     z final -51.0 51.0
Changing box ...
  orthogonal box = (-42.000000 -42.000000 -51.000000) to (42.000000 42.000000 51.000000)
  orthogonal box = (-42.000000 -42.000000 -51.000000) to (42.000000 42.000000 51.000000)
  orthogonal box = (-42.000000 -42.000000 -51.000000) to (42.000000 42.000000 51.000000)

mass		1 12.0
mass		2 15.0
mass		3 17.0
mass		4 18.0

pair_style	table linear 20000
pair_coeff	2 * table_LJ_N20k_2j.dat LL 10.0
pair_coeff	2 2 table_LJ_N20k_22.dat LL 6.0
pair_coeff	1 * table_LJ_N20k_1j.dat LS 10.0
pair_coeff	1 1 table_LJ_N20k_11.dat SS 5.0
pair_coeff	3 3 table_CS_N20k_34.dat LL 6.0
pair_coeff	3 4 table_CS_N20k_34.dat LL 6.0
pair_coeff	4 4 table_CS_N20k_34.dat LL 6.0

group		graphene type 1
1886 atoms in group graphene
group           methyl type 2
2500 atoms in group methyl
group           hydrox type 3
2500 atoms in group hydrox
group           methanol type 2 3
5000 atoms in group methanol
group           water type 4
22500 atoms in group water
group           all type 1:4
29386 atoms in group all

fix		freeze graphene setforce 0.0 0.0 0.0

#minimize 	1.0e-4 1.0e-6 100 1000

fix             1 methanol shake 0.0001 20 0 b 1 mol dimer
    2500 = # of size 2 clusters
       0 = # of size 3 clusters
       0 = # of size 4 clusters
       0 = # of frozen angles
  find clusters CPU = 0.003 seconds
fix		2 all nvt temp 100 100 $(100*dt)
fix		2 all nvt temp 100 100 100

#run		100

#neigh_modify	one 10000

timestep	1

thermo_style	custom step temp pe ke etotal density press
thermo          1

dump            1 all atom 10 cs.lammpstrj

write_data      conf_100.dat nocoeff
System init for write_data ...
  update every 1 steps, delay 10 steps, check yes

run             1000
Step Temp PotEng KinEng TotEng Density Press
0            0    766755.98            0    766755.98    1.1712222    579022.21
Averages over the last 501 of 1001 rows, steps 500 to 1000:
Temp PotEng KinEng TotEng Density Press
100.393 -13395.6 8544.13 -4851.43 1.17122 220.602
Loop time of 68.7024 on 1 procs for 1000 steps with 29386 atoms

undump          1
